/*--------------------------------*- C++ -*----------------------------------*\
| =========                 |                                                 |
| \\      /  F ield         | OpenFOAM: The Open Source CFD Toolbox           |
|  \\    /   O peration     | Version:  v2012                                 |
|   \\  /    A nd           | Website:  www.openfoam.com                      |
|    \\/     M anipulation  |                                                 |
\*---------------------------------------------------------------------------*/
FoamFile
{
    version     2.0;
    format      ascii;
    class       extendedFeatureEdgeMesh;
    location    "constant/extendedFeatureEdgeMesh";
    object      model_m.extendedFeatureEdgeMesh;
}
// * * * * * * * * * * * * * * * * * * * * * * * * * * * * * * * * * * * * * //

// points

458
(
(0 0.01 0)
(-0.00027434 0.00999624 0)
(-0.00027434 0.00999624 1.2)
(0 0.01 1.2)
(-0.000548474 0.00998495 1.2)
(-0.000548474 0.00998495 0)
(-0.000822196 0.00996614 1.2)
(-0.0010953 0.00993984 1.2)
(-0.000822196 0.00996614 0)
(-0.0010953 0.00993984 0)
(-0.00136758 0.00990605 1.2)
(-0.00136758 0.00990605 0)
(-0.00163882 0.0098648 1.2)
(-0.00163882 0.0098648 0)
(-0.00190884 0.00981613 1.2)
(-0.00217742 0.00976006 1.2)
(-0.00190884 0.00981613 0)
(-0.00217742 0.00976006 0)
(-0.00244435 0.00969666 1.2)
(-0.00244435 0.00969666 0)
(-0.00270945 0.00962595 0)
(-0.00270945 0.00962595 1.2)
(-0.00297251 0.00954799 0)
(-0.00297251 0.00954799 1.2)
(-0.00323333 0.00946285 1.2)
(-0.00323333 0.00946285 0)
(-0.00349172 0.00937059 1.2)
(-0.00349172 0.00937059 0)
(-0.00374748 0.00927127 1.2)
(-0.00400042 0.00916497 1.2)
(-0.00374748 0.00927127 0)
(-0.00425034 0.00905177 1.2)
(-0.00400042 0.00916497 0)
(-0.00425034 0.00905177 0)
(-0.00449707 0.00893176 1.2)
(-0.00474041 0.00880503 1.2)
(-0.00449707 0.00893176 0)
(-0.00474041 0.00880503 0)
(-0.00498019 0.00867166 1.2)
(-0.00521621 0.00853177 1.2)
(-0.00498019 0.00867166 0)
(-0.00521621 0.00853177 0)
(-0.00544831 0.00838546 1.2)
(-0.00544831 0.00838546 0)
(-0.0056763 0.00823283 1.2)
(-0.0056763 0.00823283 0)
(-0.00590003 0.00807401 1.2)
(-0.00611931 0.00790911 1.2)
(-0.00590003 0.00807401 0)
(-0.00633399 0.00773826 1.2)
(-0.00611931 0.00790911 0)
(-0.00633399 0.00773826 0)
(-0.00654389 0.00756158 1.2)
(-0.00654389 0.00756158 0)
(-0.00674888 0.00737921 1.2)
(-0.00694878 0.00719128 1.2)
(-0.00674888 0.00737921 0)
(-0.00694878 0.00719128 0)
(-0.00714345 0.00699794 1.2)
(-0.00714345 0.00699794 0)
(-0.00733274 0.00679933 1.2)
(-0.00751651 0.00659561 1.2)
(-0.00733274 0.00679933 0)
(-0.00751651 0.00659561 0)
(-0.00769463 0.00638692 1.2)
(-0.00786695 0.00617342 1.2)
(-0.00769463 0.00638692 0)
(-0.00786695 0.00617342 0)
(-0.00803335 0.00595527 1.2)
(-0.00803335 0.00595527 0)
(-0.00819371 0.00573264 1.2)
(-0.00819371 0.00573264 0)
(-0.00834789 0.0055057 1.2)
(-0.00834789 0.0055057 0)
(-0.00849579 0.00527461 0)
(-0.00849579 0.00527461 1.2)
(-0.0086373 0.00503955 0)
(-0.0086373 0.00503955 1.2)
(-0.0087723 0.0048007 1.2)
(-0.0087723 0.0048007 0)
(-0.0089007 0.00455823 0)
(-0.0089007 0.00455823 1.2)
(-0.0090224 0.00431233 0)
(-0.0090224 0.00431233 1.2)
(-0.00913731 0.00406319 0)
(-0.00913731 0.00406319 1.2)
(-0.00924534 0.00381099 0)
(-0.00924534 0.00381099 1.2)
(-0.00934642 0.00355591 0)
(-0.00934642 0.00355591 1.2)
(-0.00944045 0.00329817 0)
(-0.00944045 0.00329817 1.2)
(-0.00952738 0.00303794 0)
(-0.00952738 0.00303794 1.2)
(-0.00960714 0.00277542 1.2)
(-0.00960714 0.00277542 0)
(-0.00967966 0.00251081 1.2)
(-0.00967966 0.00251081 0)
(-0.0097449 0.00224431 1.2)
(-0.0097449 0.00224431 0)
(-0.0098028 0.00197613 1.2)
(-0.0098028 0.00197613 0)
(-0.00985333 0.00170645 1.2)
(-0.00985333 0.00170645 0)
(-0.00989643 0.00143549 1.2)
(-0.00989643 0.00143549 0)
(-0.00993209 0.00116345 1.2)
(-0.00993209 0.00116345 0)
(-0.00996027 0.000890537 1.2)
(-0.00996027 0.000890537 0)
(-0.00998095 0.000616951 1.2)
(-0.00998095 0.000616951 0)
(-0.00999412 0.000342901 1.2)
(-0.00999976 6.8593e-05 1.2)
(-0.00999412 0.000342901 0)
(-0.00999976 6.8593e-05 0)
(-0.00999788 -0.000205767 1.2)
(-0.00998847 -0.000479972 1.2)
(-0.00999788 -0.000205767 0)
(-0.00997155 -0.000753815 1.2)
(-0.00998847 -0.000479972 0)
(-0.00997155 -0.000753815 0)
(-0.00994711 -0.00102709 0)
(-0.00994711 -0.00102709 1.2)
(-0.00991519 -0.00129959 0)
(-0.00991519 -0.00129959 1.2)
(-0.00987581 -0.00157112 0)
(-0.00987581 -0.00157112 1.2)
(-0.00982899 -0.00184146 0)
(-0.00982899 -0.00184146 1.2)
(-0.00977477 -0.00211042 0)
(-0.00977477 -0.00211042 1.2)
(-0.00971319 -0.00237778 0)
(-0.00971319 -0.00237778 1.2)
(-0.00964431 -0.00264336 0)
(-0.00964431 -0.00264336 1.2)
(-0.00956816 -0.00290695 0)
(-0.00956816 -0.00290695 1.2)
(-0.00948481 -0.00316835 0)
(-0.00948481 -0.00316835 1.2)
(-0.00939432 -0.00342736 0)
(-0.00939432 -0.00342736 1.2)
(-0.00929675 -0.0036838 0)
(-0.00929675 -0.0036838 1.2)
(-0.00919219 -0.00393746 0)
(-0.00919219 -0.00393746 1.2)
(-0.00908071 -0.00418816 0)
(-0.00908071 -0.00418816 1.2)
(-0.0089624 -0.0044357 0)
(-0.0089624 -0.0044357 1.2)
(-0.00883734 -0.0046799 0)
(-0.00883734 -0.0046799 1.2)
(-0.00870562 -0.00492059 0)
(-0.00870562 -0.00492059 1.2)
(-0.00856735 -0.00515757 0)
(-0.00856735 -0.00515757 1.2)
(-0.00842263 -0.00539066 0)
(-0.00842263 -0.00539066 1.2)
(-0.00827158 -0.0056197 0)
(-0.00827158 -0.0056197 1.2)
(-0.00811429 -0.00584451 0)
(-0.00811429 -0.00584451 1.2)
(-0.0079509 -0.00606492 0)
(-0.0079509 -0.00606492 1.2)
(-0.00778152 -0.00628076 1.2)
(-0.00778152 -0.00628076 0)
(-0.00760629 -0.00649187 1.2)
(-0.00760629 -0.00649187 0)
(-0.00742532 -0.0066981 1.2)
(-0.00742532 -0.0066981 0)
(-0.00723877 -0.00689929 1.2)
(-0.00723877 -0.00689929 0)
(-0.00704677 -0.00709528 0)
(-0.00704677 -0.00709528 1.2)
(-0.00684947 -0.00728593 0)
(-0.00684947 -0.00728593 1.2)
(-0.00664701 -0.0074711 0)
(-0.00664701 -0.0074711 1.2)
(-0.00643955 -0.00765064 0)
(-0.00643955 -0.00765064 1.2)
(-0.00622723 -0.00782442 0)
(-0.00622723 -0.00782442 1.2)
(-0.00601023 -0.00799231 0)
(-0.00601023 -0.00799231 1.2)
(-0.00578871 -0.00815419 0)
(-0.00578871 -0.00815419 1.2)
(-0.00556283 -0.00830993 0)
(-0.00556283 -0.00830993 1.2)
(-0.00533276 -0.00845941 1.2)
(-0.00533276 -0.00845941 0)
(-0.00509868 -0.00860253 0)
(-0.00509868 -0.00860253 1.2)
(-0.00486076 -0.00873917 0)
(-0.00486076 -0.00873917 1.2)
(-0.00461918 -0.00886923 0)
(-0.00461918 -0.00886923 1.2)
(-0.00437412 -0.00899261 0)
(-0.00437412 -0.00899261 1.2)
(-0.00412577 -0.00910923 0)
(-0.00412577 -0.00910923 1.2)
(-0.00387431 -0.00921899 1.2)
(-0.00387431 -0.00921899 0)
(-0.00361994 -0.0093218 1.2)
(-0.00361994 -0.0093218 0)
(-0.00336284 -0.00941761 1.2)
(-0.00336284 -0.00941761 0)
(-0.00310321 -0.00950632 1.2)
(-0.00310321 -0.00950632 0)
(-0.00284125 -0.00958787 1.2)
(-0.00284125 -0.00958787 0)
(-0.00257715 -0.00966221 1.2)
(-0.00257715 -0.00966221 0)
(-0.0023111 -0.00972928 1.2)
(-0.0023111 -0.00972928 0)
(-0.00204332 -0.00978902 1.2)
(-0.00204332 -0.00978902 0)
(-0.001774 -0.00984139 1.2)
(-0.001774 -0.00984139 0)
(-0.00150334 -0.00988635 1.2)
(-0.00150334 -0.00988635 0)
(-0.00123155 -0.00992387 1.2)
(-0.00123155 -0.00992387 0)
(-0.000958837 -0.00995393 0)
(-0.000958837 -0.00995393 1.2)
(-0.000685399 -0.00997648 0)
(-0.000685399 -0.00997648 1.2)
(-0.000411446 -0.00999153 0)
(-0.000411446 -0.00999153 1.2)
(-0.000137183 -0.00999906 1.2)
(-0.000137183 -0.00999906 0)
(0.000137183 -0.00999906 1.2)
(0.000137183 -0.00999906 0)
(0.000411446 -0.00999153 1.2)
(0.000411446 -0.00999153 0)
(0.000685399 -0.00997648 1.2)
(0.000685399 -0.00997648 0)
(0.000958837 -0.00995393 1.2)
(0.000958837 -0.00995393 0)
(0.00123155 -0.00992387 1.2)
(0.00123155 -0.00992387 0)
(0.00150334 -0.00988635 1.2)
(0.00150334 -0.00988635 0)
(0.001774 -0.00984139 1.2)
(0.001774 -0.00984139 0)
(0.00204332 -0.00978902 1.2)
(0.00204332 -0.00978902 0)
(0.0023111 -0.00972928 1.2)
(0.0023111 -0.00972928 0)
(0.00257715 -0.00966221 1.2)
(0.00257715 -0.00966221 0)
(0.00284125 -0.00958787 1.2)
(0.00284125 -0.00958787 0)
(0.00310321 -0.00950632 1.2)
(0.00336284 -0.00941761 1.2)
(0.00310321 -0.00950632 0)
(0.00336284 -0.00941761 0)
(0.00361994 -0.0093218 1.2)
(0.00361994 -0.0093218 0)
(0.00387431 -0.00921899 1.2)
(0.00387431 -0.00921899 0)
(0.00412577 -0.00910923 1.2)
(0.00412577 -0.00910923 0)
(0.00437412 -0.00899261 1.2)
(0.00437412 -0.00899261 0)
(0.00461918 -0.00886923 1.2)
(0.00461918 -0.00886923 0)
(0.00486076 -0.00873917 1.2)
(0.00486076 -0.00873917 0)
(0.00509868 -0.00860253 1.2)
(0.00509868 -0.00860253 0)
(0.00533276 -0.00845941 1.2)
(0.00533276 -0.00845941 0)
(0.00556283 -0.00830993 1.2)
(0.00556283 -0.00830993 0)
(0.00578871 -0.00815419 0)
(0.00578871 -0.00815419 1.2)
(0.00601023 -0.00799231 0)
(0.00601023 -0.00799231 1.2)
(0.00622723 -0.00782442 0)
(0.00622723 -0.00782442 1.2)
(0.00643955 -0.00765064 0)
(0.00643955 -0.00765064 1.2)
(0.00664701 -0.0074711 0)
(0.00664701 -0.0074711 1.2)
(0.00684947 -0.00728593 0)
(0.00684947 -0.00728593 1.2)
(0.00704677 -0.00709528 0)
(0.00704677 -0.00709528 1.2)
(0.00723877 -0.00689929 0)
(0.00723877 -0.00689929 1.2)
(0.00742532 -0.0066981 0)
(0.00742532 -0.0066981 1.2)
(0.00760629 -0.00649187 0)
(0.00760629 -0.00649187 1.2)
(0.00778152 -0.00628076 0)
(0.00778152 -0.00628076 1.2)
(0.0079509 -0.00606492 1.2)
(0.0079509 -0.00606492 0)
(0.00811429 -0.00584451 1.2)
(0.00811429 -0.00584451 0)
(0.00827158 -0.0056197 1.2)
(0.00827158 -0.0056197 0)
(0.00842263 -0.00539066 1.2)
(0.00842263 -0.00539066 0)
(0.00856735 -0.00515757 1.2)
(0.00856735 -0.00515757 0)
(0.00870562 -0.00492059 1.2)
(0.00883734 -0.0046799 1.2)
(0.00870562 -0.00492059 0)
(0.00883734 -0.0046799 0)
(0.0089624 -0.0044357 1.2)
(0.0089624 -0.0044357 0)
(0.00908071 -0.00418816 1.2)
(0.00908071 -0.00418816 0)
(0.00919219 -0.00393746 1.2)
(0.00919219 -0.00393746 0)
(0.00929675 -0.0036838 1.2)
(0.00929675 -0.0036838 0)
(0.00939432 -0.00342736 1.2)
(0.00939432 -0.00342736 0)
(0.00948481 -0.00316835 1.2)
(0.00948481 -0.00316835 0)
(0.00956816 -0.00290695 1.2)
(0.00956816 -0.00290695 0)
(0.00964431 -0.00264336 0)
(0.00964431 -0.00264336 1.2)
(0.00971319 -0.00237778 0)
(0.00971319 -0.00237778 1.2)
(0.00977477 -0.00211042 0)
(0.00977477 -0.00211042 1.2)
(0.00982899 -0.00184146 0)
(0.00982899 -0.00184146 1.2)
(0.00987581 -0.00157112 0)
(0.00987581 -0.00157112 1.2)
(0.00991519 -0.00129959 0)
(0.00991519 -0.00129959 1.2)
(0.00994711 -0.00102709 0)
(0.00994711 -0.00102709 1.2)
(0.00997155 -0.000753815 0)
(0.00997155 -0.000753815 1.2)
(0.00998847 -0.000479972 0)
(0.00998847 -0.000479972 1.2)
(0.00999788 -0.000205767 0)
(0.00999788 -0.000205767 1.2)
(0.00999976 6.8593e-05 0)
(0.00999976 6.8593e-05 1.2)
(0.00999412 0.000342901 0)
(0.00999412 0.000342901 1.2)
(0.00998095 0.000616951 1.2)
(0.00998095 0.000616951 0)
(0.00996027 0.000890537 0)
(0.00996027 0.000890537 1.2)
(0.00993209 0.00116345 0)
(0.00993209 0.00116345 1.2)
(0.00989643 0.00143549 0)
(0.00989643 0.00143549 1.2)
(0.00985333 0.00170645 0)
(0.00985333 0.00170645 1.2)
(0.0098028 0.00197613 0)
(0.0098028 0.00197613 1.2)
(0.0097449 0.00224431 0)
(0.0097449 0.00224431 1.2)
(0.00967966 0.00251081 0)
(0.00967966 0.00251081 1.2)
(0.00960714 0.00277542 1.2)
(0.00960714 0.00277542 0)
(0.00952738 0.00303794 1.2)
(0.00952738 0.00303794 0)
(0.00944045 0.00329817 1.2)
(0.00944045 0.00329817 0)
(0.00934642 0.00355591 1.2)
(0.00934642 0.00355591 0)
(0.00924534 0.00381099 1.2)
(0.00924534 0.00381099 0)
(0.00913731 0.00406319 0)
(0.00913731 0.00406319 1.2)
(0.0090224 0.00431233 0)
(0.0090224 0.00431233 1.2)
(0.0089007 0.00455823 0)
(0.0089007 0.00455823 1.2)
(0.0087723 0.0048007 0)
(0.0087723 0.0048007 1.2)
(0.0086373 0.00503955 0)
(0.0086373 0.00503955 1.2)
(0.00849579 0.00527461 0)
(0.00849579 0.00527461 1.2)
(0.00834789 0.0055057 0)
(0.00834789 0.0055057 1.2)
(0.00819371 0.00573264 0)
(0.00819371 0.00573264 1.2)
(0.00803335 0.00595527 0)
(0.00803335 0.00595527 1.2)
(0.00786695 0.00617342 0)
(0.00786695 0.00617342 1.2)
(0.00769463 0.00638692 0)
(0.00769463 0.00638692 1.2)
(0.00751651 0.00659561 0)
(0.00751651 0.00659561 1.2)
(0.00733274 0.00679933 0)
(0.00733274 0.00679933 1.2)
(0.00714345 0.00699794 0)
(0.00714345 0.00699794 1.2)
(0.00694878 0.00719128 1.2)
(0.00694878 0.00719128 0)
(0.00674888 0.00737921 1.2)
(0.00674888 0.00737921 0)
(0.00654389 0.00756158 1.2)
(0.00654389 0.00756158 0)
(0.00633399 0.00773826 1.2)
(0.00633399 0.00773826 0)
(0.00611931 0.00790911 1.2)
(0.00611931 0.00790911 0)
(0.00590003 0.00807401 1.2)
(0.0056763 0.00823283 1.2)
(0.00590003 0.00807401 0)
(0.00544831 0.00838546 1.2)
(0.0056763 0.00823283 0)
(0.00544831 0.00838546 0)
(0.00521621 0.00853177 1.2)
(0.00498019 0.00867166 1.2)
(0.00521621 0.00853177 0)
(0.00498019 0.00867166 0)
(0.00474041 0.00880503 1.2)
(0.00474041 0.00880503 0)
(0.00449707 0.00893176 0)
(0.00449707 0.00893176 1.2)
(0.00425034 0.00905177 0)
(0.00425034 0.00905177 1.2)
(0.00400042 0.00916497 0)
(0.00400042 0.00916497 1.2)
(0.00374748 0.00927127 0)
(0.00374748 0.00927127 1.2)
(0.00349172 0.00937059 1.2)
(0.00349172 0.00937059 0)
(0.00323333 0.00946285 1.2)
(0.00323333 0.00946285 0)
(0.00297251 0.00954799 1.2)
(0.00297251 0.00954799 0)
(0.00270945 0.00962595 1.2)
(0.00270945 0.00962595 0)
(0.00244435 0.00969666 1.2)
(0.00244435 0.00969666 0)
(0.00217742 0.00976006 1.2)
(0.00190884 0.00981613 1.2)
(0.00217742 0.00976006 0)
(0.00163882 0.0098648 1.2)
(0.00190884 0.00981613 0)
(0.00163882 0.0098648 0)
(0.00136758 0.00990605 1.2)
(0.00136758 0.00990605 0)
(0.0010953 0.00993984 1.2)
(0.0010953 0.00993984 0)
(0.000822196 0.00996614 1.2)
(0.000548474 0.00998495 1.2)
(0.000822196 0.00996614 0)
(0.000548474 0.00998495 0)
(0.00027434 0.00999624 1.2)
(0.00027434 0.00999624 0)
)

// edges

458
(
(0 1)
(2 3)
(4 2)
(1 5)
(6 4)
(7 6)
(5 8)
(8 9)
(10 7)
(9 11)
(12 10)
(11 13)
(14 12)
(15 14)
(13 16)
(16 17)
(18 15)
(17 19)
(19 20)
(21 18)
(20 22)
(23 21)
(24 23)
(22 25)
(26 24)
(25 27)
(28 26)
(29 28)
(27 30)
(31 29)
(30 32)
(32 33)
(34 31)
(35 34)
(33 36)
(36 37)
(38 35)
(39 38)
(37 40)
(40 41)
(42 39)
(41 43)
(44 42)
(43 45)
(46 44)
(47 46)
(45 48)
(49 47)
(48 50)
(50 51)
(52 49)
(51 53)
(54 52)
(55 54)
(53 56)
(56 57)
(58 55)
(57 59)
(60 58)
(61 60)
(59 62)
(62 63)
(64 61)
(65 64)
(63 66)
(66 67)
(68 65)
(67 69)
(70 68)
(69 71)
(72 70)
(71 73)
(73 74)
(75 72)
(74 76)
(77 75)
(78 77)
(76 79)
(79 80)
(81 78)
(80 82)
(83 81)
(82 84)
(85 83)
(84 86)
(87 85)
(86 88)
(89 87)
(88 90)
(91 89)
(90 92)
(93 91)
(94 93)
(92 95)
(96 94)
(95 97)
(98 96)
(97 99)
(100 98)
(99 101)
(102 100)
(101 103)
(104 102)
(103 105)
(106 104)
(105 107)
(108 106)
(107 109)
(110 108)
(109 111)
(112 110)
(113 112)
(111 114)
(114 115)
(116 113)
(117 116)
(115 118)
(119 117)
(118 120)
(120 121)
(121 122)
(123 119)
(122 124)
(125 123)
(124 126)
(127 125)
(126 128)
(129 127)
(128 130)
(131 129)
(130 132)
(133 131)
(132 134)
(135 133)
(134 136)
(137 135)
(136 138)
(139 137)
(138 140)
(141 139)
(140 142)
(143 141)
(142 144)
(145 143)
(144 146)
(147 145)
(146 148)
(149 147)
(148 150)
(151 149)
(150 152)
(153 151)
(152 154)
(155 153)
(154 156)
(157 155)
(156 158)
(159 157)
(158 160)
(161 159)
(160 162)
(163 161)
(164 163)
(162 165)
(166 164)
(165 167)
(168 166)
(167 169)
(170 168)
(169 171)
(171 172)
(173 170)
(172 174)
(175 173)
(174 176)
(177 175)
(176 178)
(179 177)
(178 180)
(181 179)
(180 182)
(183 181)
(182 184)
(185 183)
(184 186)
(187 185)
(188 187)
(186 189)
(189 190)
(191 188)
(190 192)
(193 191)
(192 194)
(195 193)
(194 196)
(197 195)
(196 198)
(199 197)
(200 199)
(198 201)
(202 200)
(201 203)
(204 202)
(203 205)
(206 204)
(205 207)
(208 206)
(207 209)
(210 208)
(209 211)
(212 210)
(211 213)
(214 212)
(213 215)
(216 214)
(215 217)
(218 216)
(217 219)
(220 218)
(219 221)
(221 222)
(223 220)
(222 224)
(225 223)
(224 226)
(227 225)
(228 227)
(226 229)
(230 228)
(229 231)
(232 230)
(231 233)
(234 232)
(233 235)
(236 234)
(235 237)
(238 236)
(237 239)
(240 238)
(239 241)
(242 240)
(241 243)
(244 242)
(243 245)
(246 244)
(245 247)
(248 246)
(247 249)
(250 248)
(249 251)
(252 250)
(253 252)
(251 254)
(254 255)
(256 253)
(255 257)
(258 256)
(257 259)
(260 258)
(259 261)
(262 260)
(261 263)
(264 262)
(263 265)
(266 264)
(265 267)
(268 266)
(267 269)
(270 268)
(269 271)
(272 270)
(271 273)
(273 274)
(275 272)
(274 276)
(277 275)
(276 278)
(279 277)
(278 280)
(281 279)
(280 282)
(283 281)
(282 284)
(285 283)
(284 286)
(287 285)
(286 288)
(289 287)
(288 290)
(291 289)
(290 292)
(293 291)
(292 294)
(295 293)
(296 295)
(294 297)
(298 296)
(297 299)
(300 298)
(299 301)
(302 300)
(301 303)
(304 302)
(303 305)
(306 304)
(307 306)
(305 308)
(308 309)
(310 307)
(309 311)
(312 310)
(311 313)
(314 312)
(313 315)
(316 314)
(315 317)
(318 316)
(317 319)
(320 318)
(319 321)
(322 320)
(321 323)
(323 324)
(325 322)
(324 326)
(327 325)
(326 328)
(329 327)
(328 330)
(331 329)
(330 332)
(333 331)
(332 334)
(335 333)
(334 336)
(337 335)
(336 338)
(339 337)
(338 340)
(341 339)
(340 342)
(343 341)
(342 344)
(345 343)
(344 346)
(347 345)
(348 347)
(346 349)
(349 350)
(351 348)
(350 352)
(353 351)
(352 354)
(355 353)
(354 356)
(357 355)
(356 358)
(359 357)
(358 360)
(361 359)
(360 362)
(363 361)
(364 363)
(362 365)
(366 364)
(365 367)
(368 366)
(367 369)
(370 368)
(369 371)
(372 370)
(371 373)
(373 374)
(375 372)
(374 376)
(377 375)
(376 378)
(379 377)
(378 380)
(381 379)
(380 382)
(383 381)
(382 384)
(385 383)
(384 386)
(387 385)
(386 388)
(389 387)
(388 390)
(391 389)
(390 392)
(393 391)
(392 394)
(395 393)
(394 396)
(397 395)
(396 398)
(399 397)
(398 400)
(401 399)
(402 401)
(400 403)
(404 402)
(403 405)
(406 404)
(405 407)
(408 406)
(407 409)
(410 408)
(409 411)
(412 410)
(413 412)
(411 414)
(415 413)
(414 416)
(416 417)
(418 415)
(419 418)
(417 420)
(420 421)
(422 419)
(421 423)
(423 424)
(425 422)
(424 426)
(427 425)
(426 428)
(429 427)
(428 430)
(431 429)
(432 431)
(430 433)
(434 432)
(433 435)
(436 434)
(435 437)
(438 436)
(437 439)
(440 438)
(439 441)
(442 440)
(443 442)
(441 444)
(445 443)
(444 446)
(446 447)
(448 445)
(447 449)
(450 448)
(449 451)
(452 450)
(453 452)
(451 454)
(454 455)
(456 453)
(455 457)
(3 456)
(457 0)
)

// concaveStart mixedStart nonFeatureStart
0 0 0
// internalStart flatStart openStart multipleStart
458 458 458 458
// normals

774
(
(-0.0137034 0.999906 0)
(0 0 -1)
(-0.0137034 0.999906 0)
(0 0 1)
(-0.0411509 0.999153 0)
(0 0 1)
(-0.0411509 0.999153 0)
(0 0 -1)
(-0.0685574 0.997647 0)
(-0.0958555 0.995395 0)
(-0 0 1)
(-0.0685574 0.997647 0)
(-0.0958555 0.995395 0)
(0 0 -1)
(-0.123156 0.992387 0)
(0 0 1)
(-0.123156 0.992387 0)
(0 0 -1)
(-0.150351 0.988633 0)
(0 0 1)
(-0.150351 0.988633 0)
(-0 0 -1)
(-0.177387 0.984141 0)
(0 0 1)
(-0.204357 0.978897 0)
(0 0 1)
(-0.177387 0.984141 0)
(0 0 -1)
(-0.204357 0.978897 0)
(0 0 -1)
(-0.231089 0.972933 0)
(0 0 1)
(-0.231089 0.972933 0)
(0 0 -1)
(-0.257718 0.96622 0)
(-0.257718 0.96622 0)
(-0.284143 0.958782 0)
(0 0 -1)
(-0.284143 0.958782 0)
(0 0 1)
(-0.310316 0.950634 0)
(-0.310316 0.950634 0)
(-0.336267 0.941767 0)
(0 0 1)
(-0.336267 0.941767 0)
(0 0 -1)
(-0.361996 0.93218 0)
(-0.387432 0.921898 0)
(0 0 1)
(-0.361996 0.93218 0)
(-0.412596 0.910914 0)
(0 0 1)
(-0.387432 0.921898 0)
(0 0 -1)
(-0.412596 0.910914 0)
(0 0 -1)
(-0.437405 0.899264 0)
(-0.461906 0.886929 0)
(0 0 1)
(-0.437405 0.899264 0)
(-0.461906 0.886929 0)
(0 0 -1)
(-0.486085 0.873911 0)
(0 0 1)
(-0.509874 0.860249 0)
(0 0 1)
(-0.486085 0.873911 0)
(0 0 -1)
(-0.509874 0.860249 0)
(0 0 -1)
(-0.533264 0.845949 0)
(0 0 1)
(-0.533264 0.845949 0)
(0 0 -1)
(-0.556306 0.830978 0)
(-0.556306 0.830978 0)
(-0.578854 0.815431 0)
(0 0 1)
(-0.601026 0.799229 0)
(-0.578854 0.815431 0)
(0 0 -1)
(-0.622705 0.782456 0)
(0 0 1)
(-0.601026 0.799229 0)
(-0.622705 0.782456 0)
(0 0 -1)
(-0.64397 0.765051 0)
(0 0 1)
(-0.64397 0.765051 0)
(0 0 -1)
(-0.664683 0.747126 0)
(-0.684957 0.728584 0)
(0 0 1)
(-0.664683 0.747126 0)
(-0.684957 0.728584 0)
(0 0 -1)
(-0.704678 0.709527 0)
(-0 0 1)
(-0.704678 0.709527 0)
(0 0 -1)
(-0.723888 0.689918 0)
(0 0 1)
(-0.742529 0.669814 0)
(0 0 1)
(-0.723888 0.689918 0)
(0 -0 -1)
(-0.742529 0.669814 0)
(0 -0 -1)
(-0.760619 0.649199 0)
(0 0 1)
(-0.778159 0.628068 0)
(-0.760619 0.649199 0)
(0 -0 -1)
(-0.778159 0.628068 0)
(-0.795097 0.606483 0)
(0 0 1)
(-0.795097 0.606483 0)
(0 -0 -1)
(-0.81142 0.584464 0)
(0 0 1)
(-0.81142 0.584464 0)
(0 -0 -1)
(-0.827162 0.561964 0)
(-0.827162 0.561964 0)
(-0.842268 0.539059 0)
(0 -0 -1)
(-0.842268 0.539059 0)
(0 0 1)
(-0.85673 0.515765 0)
(-0.85673 0.515765 0)
(-0.870566 0.492051 0)
(0 0 1)
(-0.870566 0.492051 0)
(0 -0 -1)
(-0.883737 0.467984 0)
(-0.883737 0.467984 0)
(-0.896243 0.443564 0)
(0 -0 -1)
(-0.896243 0.443564 0)
(0 0 1)
(-0.908067 0.418826 0)
(-0.908067 0.418826 0)
(-0.919219 0.393747 0)
(0 -0 -1)
(-0.919219 0.393747 0)
(0 0 1)
(-0.929668 0.368398 0)
(0 -0 -1)
(-0.929668 0.368398 0)
(0 0 1)
(-0.939434 0.342729 0)
(-0.939434 0.342729 0)
(-0.948479 0.316839 0)
(0 -0 -1)
(-0.948479 0.316839 0)
(0 0 1)
(-0.956813 0.290704 0)
(-0.956813 0.290704 0)
(-0.964436 0.264318 0)
(0 0 1)
(-0.964436 0.264318 0)
(0 -0 -1)
(-0.971319 0.237782 0)
(0 0 1)
(-0.971319 0.237782 0)
(0 -0 -1)
(-0.977478 0.211035 0)
(-0.977478 0.211035 0)
(-0.982895 0.184168 0)
(0 0 1)
(-0.982895 0.184168 0)
(0 -0 -1)
(-0.987585 0.157088 0)
(0 0 1)
(-0.987585 0.157088 0)
(0 -0 -1)
(-0.991518 0.12997 0)
(0 0 1)
(-0.991518 0.12997 0)
(0 0 -1)
(-0.994711 0.10271 0)
(0 0 1)
(-0.994711 0.10271 0)
(0 -0 -1)
(-0.997155 0.0753737 0)
(-0.997155 0.0753737 0)
(-0.998847 0.0480043 0)
(0 0 1)
(-0.999789 0.0205568 0)
(-0.998847 0.0480043 0)
(0 -0 -1)
(-0.999789 0.0205568 0)
(-0.999977 -0.00685339 0)
(0 0 1)
(-0.999412 -0.0342975 -0)
(-0.999977 -0.00685339 0)
(0 0 -1)
(-0.998097 -0.0616706 -0)
(0 0 1)
(-0.999412 -0.0342975 0)
(-0.998097 -0.0616706 0)
(0 0 -1)
(-0.996025 -0.0890773 0)
(0 0 -1)
(-0.996025 -0.0890773 0)
(0 0 1)
(-0.993209 -0.116343 0)
(-0.993209 -0.116343 0)
(-0.989646 -0.143529 0)
(0 0 -1)
(-0.989646 -0.143529 0)
(0 0 1)
(-0.985332 -0.170647 0)
(0 0 -1)
(-0.985332 -0.170647 0)
(0 0 1)
(-0.980279 -0.197618 0)
(-0.980279 -0.197618 0)
(-0.974486 -0.22445 0)
(0 0 -1)
(-0.974486 -0.22445 0)
(0 0 1)
(-0.967974 -0.25105 0)
(0 0 -1)
(-0.967974 -0.25105 0)
(0 0 1)
(-0.960713 -0.277544 0)
(-0.960713 -0.277544 0)
(-0.952738 -0.303792 0)
(0 0 -1)
(-0.952738 -0.303792 0)
(0 0 1)
(-0.944044 -0.32982 0)
(0 0 -1)
(-0.944044 -0.32982 0)
(0 0 1)
(-0.934635 -0.355609 0)
(0 0 -1)
(-0.934635 -0.355609 0)
(0 0 1)
(-0.924535 -0.381097 0)
(0 0 -1)
(-0.924535 -0.381097 0)
(0 0 1)
(-0.913733 -0.406315 0)
(0 0 -1)
(-0.913733 -0.406315 0)
(0 0 1)
(-0.902246 -0.431221 0)
(0 0 -1)
(-0.902246 -0.431221 0)
(0 0 1)
(-0.89007 -0.455823 0)
(-0.89007 -0.455823 0)
(-0.877228 -0.480074 0)
(0 0 -1)
(-0.877228 -0.480074 0)
(0 0 1)
(-0.863729 -0.503957 0)
(-0.863729 -0.503957 0)
(-0.849569 -0.527477 0)
(0 0 -1)
(-0.849569 -0.527477 0)
(0 0 1)
(-0.834804 -0.550547 0)
(0 0 -1)
(-0.834804 -0.550547 0)
(0 0 1)
(-0.819365 -0.573272 0)
(-0.819365 -0.573272 0)
(-0.803342 -0.595518 0)
(0 0 -1)
(-0.803342 -0.595518 0)
(0 0 1)
(-0.786687 -0.617352 0)
(0 0 1)
(-0.786687 -0.617352 0)
(0 0 -1)
(-0.769466 -0.638688 0)
(-0.769466 -0.638688 0)
(-0.751639 -0.659575 0)
(0 0 1)
(-0.751639 -0.659575 0)
(0 0 -1)
(-0.733283 -0.679924 0)
(-0.733283 -0.679924 0)
(-0.714341 -0.699798 0)
(0 0 -1)
(-0.714341 -0.699798 0)
(0 0 1)
(-0.694885 -0.719121 0)
(0 0 -1)
(-0.694885 -0.719121 0)
(0 0 1)
(-0.674895 -0.737914 0)
(-0.674895 -0.737914 0)
(-0.654392 -0.756156 0)
(0 0 -1)
(-0.654392 -0.756156 0)
(0 0 1)
(-0.633378 -0.773843 0)
(-0.633378 -0.773843 0)
(-0.611923 -0.790917 0)
(0 0 -1)
(-0.611923 -0.790917 0)
(0 0 1)
(-0.590016 -0.807392 0)
(-0.590016 -0.807392 0)
(-0.567634 -0.823281 0)
(0 0 -1)
(-0.567634 -0.823281 0)
(0 0 1)
(-0.544821 -0.838552 -0)
(0 0 1)
(-0.544821 -0.838552 0)
(0 0 -1)
(-0.521639 -0.853166 0)
(0 0 -1)
(-0.521639 -0.853166 0)
(0 0 1)
(-0.498022 -0.867164 0)
(0 0 -1)
(-0.498022 -0.867164 0)
(0 0 1)
(-0.474039 -0.880504 0)
(0 0 -1)
(-0.474039 -0.880504 0)
(0 0 1)
(-0.449689 -0.893185 0)
(0 0 -1)
(-0.449689 -0.893185 0)
(0 0 1)
(-0.42505 -0.90517 0)
(-0.42505 -0.90517 0)
(-0.400043 -0.916497 0)
(0 0 1)
(-0.400043 -0.916497 0)
(0 0 -1)
(-0.374727 -0.927135 0)
(0 0 1)
(-0.374727 -0.927135 0)
(0 0 -1)
(-0.349197 -0.937049 0)
(0 0 1)
(-0.349197 -0.937049 0)
(0 0 -1)
(-0.323324 -0.946288 0)
(0 0 1)
(-0.323324 -0.946288 0)
(0 0 -1)
(-0.297238 -0.954803 0)
(0 0 1)
(-0.297238 -0.954803 0)
(0 0 -1)
(-0.270955 -0.962592 0)
(0 0 1)
(-0.270955 -0.962592 0)
(0 0 -1)
(-0.244448 -0.969662 0)
(-0.244448 -0.969662 0)
(-0.21774 -0.976007 0)
(0 0 1)
(-0.21774 -0.976007 0)
(0 0 -1)
(-0.190878 -0.981614 0)
(-0.190878 -0.981614 0)
(-0.163866 -0.986483 0)
(0 0 1)
(-0.163866 -0.986483 0)
(0 0 -1)
(-0.136752 -0.990605 0)
(0 0 1)
(-0.136752 -0.990605 0)
(0 0 -1)
(-0.109563 -0.99398 0)
(0 0 -1)
(-0.109563 -0.99398 0)
(0 0 1)
(-0.0821898 -0.996617 0)
(0 0 -1)
(-0.0821898 -0.996617 0)
(0 0 1)
(-0.0548543 -0.998494 0)
(-0.0548543 -0.998494 0)
(-0.0274441 -0.999623 0)
(0 0 1)
(-0.0274441 -0.999623 0)
(0 0 -1)
(0 -1 0)
(0 -1 0)
(0.0274441 -0.999623 0)
(0 0 1)
(0.0274441 -0.999623 0)
(0 0 -1)
(0.0548543 -0.998494 0)
(0 0 1)
(0.0548543 -0.998494 0)
(-0 0 -1)
(0.0821898 -0.996617 0)
(0.0821898 -0.996617 0)
(0.109563 -0.99398 0)
(0 0 1)
(0.109563 -0.99398 0)
(-0 0 -1)
(0.136752 -0.990605 0)
(0.136752 -0.990605 0)
(0.163866 -0.986483 0)
(0 0 1)
(0.163866 -0.986483 0)
(0 0 -1)
(0.190878 -0.981614 0)
(0 0 1)
(0.190878 -0.981614 0)
(-0 0 -1)
(0.21774 -0.976007 0)
(0.21774 -0.976007 0)
(0.244448 -0.969662 0)
(0 0 1)
(0.244448 -0.969662 0)
(-0 0 -1)
(0.270955 -0.962592 0)
(0.270955 -0.962592 0)
(0.297238 -0.954803 0)
(0 0 1)
(0.323324 -0.946288 0)
(0.297238 -0.954803 0)
(-0 0 -1)
(0.323324 -0.946288 0)
(0.349197 -0.937049 0)
(0 0 1)
(0.349197 -0.937049 0)
(-0 0 -1)
(0.374727 -0.927135 0)
(0 0 1)
(0.374727 -0.927135 0)
(-0 0 -1)
(0.400043 -0.916497 0)
(0.400043 -0.916497 0)
(0.42505 -0.90517 0)
(0 0 1)
(0.42505 -0.90517 0)
(-0 0 -1)
(0.449689 -0.893185 0)
(0.449689 -0.893185 0)
(0.474039 -0.880504 0)
(0 0 1)
(0.474039 -0.880504 0)
(-0 0 -1)
(0.498022 -0.867164 0)
(0 0 1)
(0.498022 -0.867164 0)
(-0 0 -1)
(0.521639 -0.853166 0)
(0.521639 -0.853166 0)
(0.544821 -0.838552 0)
(0 0 1)
(0.544821 -0.838552 0)
(-0 0 -1)
(0.567634 -0.823281 0)
(-0 0 -1)
(0.567634 -0.823281 0)
(0 0 1)
(0.590016 -0.807392 0)
(-0 0 -1)
(0.590016 -0.807392 0)
(0 0 1)
(0.611923 -0.790917 0)
(0.611923 -0.790917 0)
(0.633378 -0.773843 0)
(-0 0 -1)
(0.633378 -0.773843 0)
(0 0 1)
(0.654392 -0.756156 0)
(-0 0 -1)
(0.654392 -0.756156 0)
(0 0 1)
(0.674895 -0.737914 0)
(-0 0 -1)
(0.674895 -0.737914 0)
(0 0 1)
(0.694885 -0.719121 0)
(0.694885 -0.719121 0)
(0.714341 -0.699798 0)
(-0 0 -1)
(0.714341 -0.699798 0)
(0 0 1)
(0.733283 -0.679924 0)
(-0 0 -1)
(0.733283 -0.679924 0)
(0 0 1)
(0.751639 -0.659575 0)
(-0 0 -1)
(0.751639 -0.659575 0)
(0 0 1)
(0.769466 -0.638688 0)
(-0 0 -1)
(0.769466 -0.638688 0)
(0 0 1)
(0.786687 -0.617352 0)
(0 0 1)
(0.786687 -0.617352 0)
(0 0 -1)
(0.803342 -0.595518 0)
(0 0 1)
(0.803342 -0.595518 0)
(0 0 -1)
(0.819365 -0.573272 0)
(0.819365 -0.573272 0)
(0.834804 -0.550547 0)
(0 0 1)
(0.834804 -0.550547 0)
(0 0 -1)
(0.849569 -0.527477 0)
(0 0 1)
(0.849569 -0.527477 0)
(0 0 -1)
(0.863729 -0.503957 0)
(0.877228 -0.480074 0)
(0 0 1)
(0.863729 -0.503957 0)
(0.877228 -0.480074 0)
(0 0 -1)
(0.89007 -0.455823 0)
(0.89007 -0.455823 0)
(0.902246 -0.431221 0)
(0 0 1)
(0.902246 -0.431221 0)
(0 0 -1)
(0.913733 -0.406315 0)
(0 0 1)
(0.913733 -0.406315 0)
(0 0 -1)
(0.924535 -0.381097 0)
(0 0 1)
(0.924535 -0.381097 0)
(0 0 -1)
(0.934635 -0.355609 0)
(0.934635 -0.355609 0)
(0.944044 -0.32982 0)
(0 0 1)
(0.944044 -0.32982 0)
(0 0 -1)
(0.952738 -0.303792 0)
(0 0 1)
(0.952738 -0.303792 0)
(0 0 -1)
(0.960713 -0.277544 0)
(0.960713 -0.277544 0)
(0.967974 -0.25105 0)
(0 0 -1)
(0.967974 -0.25105 0)
(0 0 1)
(0.974486 -0.22445 0)
(0 0 -1)
(0.974486 -0.22445 0)
(0 0 1)
(0.980279 -0.197618 0)
(0.980279 -0.197618 0)
(0.985332 -0.170647 0)
(0 0 -1)
(0.985332 -0.170647 0)
(0 0 1)
(0.989646 -0.143529 0)
(0 0 -1)
(0.989646 -0.143529 0)
(0 0 1)
(0.993209 -0.116343 0)
(0 0 -1)
(0.993209 -0.116343 0)
(0 0 1)
(0.996025 -0.0890773 0)
(0.996025 -0.0890773 0)
(0.998097 -0.0616706 0)
(0 0 -1)
(0.998097 -0.0616706 0)
(0 0 1)
(0.999412 -0.0342975 0)
(0 0 -1)
(0.999412 -0.0342975 0)
(0 0 1)
(0.999977 -0.00685339 0)
(0.999977 -0.00685339 0)
(0.999789 0.0205568 -0)
(0 0 -1)
(0.999789 0.0205568 0)
(0 0 1)
(0.998847 0.0480043 0)
(0.998847 0.0480043 0)
(0.997155 0.0753737 -0)
(0 0 -1)
(0.997155 0.0753737 0)
(0 0 1)
(0.994711 0.10271 -0)
(0.994711 0.10271 0)
(0.991518 0.12997 -0)
(0 0 -1)
(0.991518 0.12997 0)
(0 0 1)
(0.987585 0.157088 -0)
(0.987585 0.157088 0)
(0.982895 0.184168 -0)
(0 0 -1)
(0.982895 0.184168 0)
(0 0 1)
(0.977478 0.211035 -0)
(0.977478 0.211035 0)
(0.971319 0.237782 -0)
(0 0 -1)
(0.971319 0.237782 0)
(0 0 1)
(0.964436 0.264318 0)
(0.964436 0.264318 -0)
(0.956813 0.290704 0)
(0 0 1)
(0.956813 0.290704 -0)
(0 0 -1)
(0.948479 0.316839 0)
(0.948479 0.316839 -0)
(0.939434 0.342729 0)
(0 0 1)
(0.939434 0.342729 -0)
(0 0 -1)
(0.929668 0.368398 0)
(0 0 1)
(0.929668 0.368398 -0)
(0 0 -1)
(0.919219 0.393747 -0)
(0 0 -1)
(0.919219 0.393747 0)
(0 0 1)
(0.908067 0.418826 -0)
(0 0 -1)
(0.908067 0.418826 0)
(0 0 1)
(0.896243 0.443564 -0)
(0 0 -1)
(0.896243 0.443564 0)
(0 0 1)
(0.883737 0.467984 -0)
(0.883737 0.467984 0)
(0.870566 0.492051 -0)
(0 0 -1)
(0.870566 0.492051 0)
(0 0 1)
(0.85673 0.515765 -0)
(0 0 -1)
(0.85673 0.515765 0)
(0 0 1)
(0.842268 0.539059 -0)
(0 0 -1)
(0.842268 0.539059 0)
(0 0 1)
(0.827162 0.561964 -0)
(0 0 -1)
(0.827162 0.561964 0)
(0 0 1)
(0.81142 0.584464 -0)
(0.81142 0.584464 0)
(0.795097 0.606483 -0)
(0 0 -1)
(0.795097 0.606483 0)
(0 0 1)
(0.778159 0.628068 -0)
(0.778159 0.628068 0)
(0.760619 0.649199 -0)
(0 0 -1)
(0.760619 0.649199 0)
(0 0 1)
(0.742529 0.669814 -0)
(0 0 -1)
(0.742529 0.669814 0)
(0 0 1)
(0.723888 0.689918 -0)
(0.723888 0.689918 0)
(0.704678 0.709527 0)
(0 0 1)
(0.704678 0.709527 -0)
(0 0 -1)
(0.684957 0.728584 0)
(0 0 1)
(0.684957 0.728584 -0)
(0 0 -1)
(0.664683 0.747126 0)
(0 0 1)
(0.664683 0.747126 -0)
(0 0 -1)
(0.64397 0.765051 0)
(0.64397 0.765051 -0)
(0.622705 0.782456 0)