/*--------------------------------*- C++ -*----------------------------------*\
| =========                 |                                                 |
| \\      /  F ield         | OpenFOAM: The Open Source CFD Toolbox           |
|  \\    /   O peration     | Version:  2212                                  |
|   \\  /    A nd           | Website:  www.openfoam.com                      |
|    \\/     M anipulation  |                                                 |
\*---------------------------------------------------------------------------*/
FoamFile
{
    version     2.0;
    format      ascii;
    arch        "LSB;label=32;scalar=64";
    class       volVectorField;
    location    "0";
    object      U;
}
// * * * * * * * * * * * * * * * * * * * * * * * * * * * * * * * * * * * * * //

dimensions      [ 0 1 -1 0 0 0 0 ];

internalField   uniform ( 0 0 1 );

boundaryField
{
    inlet
    {
        type            fixedValue;
        value           uniform ( 0 0 1 );
    }
    outlet
    {
        type            zeroGradient;
    }
    sideWall
    {
        type            noSlip;
    }
    inlet_outlet
    {
        type            cyclicAMI;
        neighbourPatch  outlet_inlet;
    }
    outlet_inlet
    {
        type            cyclicAMI;
        neighbourPatch  inlet_outlet;
    }
}


// ************************************************************************* //
